_cell_length_a 18.279
_cell_length_b 20.564
_cell_length_c 7.553
_cell_angle_alpha 90.000
_cell_angle_beta 90.000
_cell_angle_gamma 90.000
_cell_volume 2838.952

_symmetry_cell_setting triclinic
_symmetry_space_group_name_Hall 'P 1'
_symmetry_space_group_name_H-M 'P 1'
_symmetry_Int_Tables_number 1
_symmetry_equiv_pos_as_xyz 'x,y,z'

loop_
_atom_site_label
_atom_site_type_symbol
_atom_site_fract_x
_atom_site_fract_y
_atom_site_fract_z
_atom_site_charge
Si Si 0.984 0.796 0.376 -0.393
Al Al 0.472 0.625 0.609 0.000
Si Si 0.776 0.017 0.812 -0.393
Si Si 0.228 0.766 0.611 -0.393
Si Si 0.454 0.151 0.252 -0.393
Si Si 0.192 0.237 0.824 -0.393
Al Al 0.833 0.138 0.658 0.000
Si Si 0.130 0.394 0.731 -0.393
Si Si 0.230 0.573 0.376 -0.393
Al Al 0.122 0.617 0.168 0.000
Si Si 0.265 0.246 0.690 -0.393
Si Si 0.102 0.458 0.755 -0.393
Si Si 0.640 0.287 0.422 -0.393
Si Si 0.325 0.322 0.724 -0.393
Si Si 0.215 0.798 0.974 -0.393
Si Si 0.490 0.081 0.564 -0.393
Si Si 0.501 0.172 0.891 -0.393
Si Si 0.563 0.153 0.193 -0.393
Si Si 0.269 0.620 0.514 -0.393
Si Si 0.875 0.258 0.918 -0.393
Si Si 0.979 0.311 0.975 -0.393
Si Si 0.996 0.831 0.541 -0.393
Si Si 0.926 0.934 0.517 -0.393
Si Si 0.381 0.013 0.877 -0.393
Si Si 0.286 0.818 0.911 -0.393
Si Si 0.115 0.520 0.209 -0.393
Si Si 0.947 0.652 0.755 -0.393
Si Si 0.419 0.037 0.719 -0.393
Si Si 0.295 0.746 0.560 -0.393
Al Al 0.380 0.982 0.422 0.000
Si Si 0.944 0.834 0.930 -0.393
Si Si 0.316 0.366 0.264 -0.393
Si Si 0.757 0.829 0.393 -0.393
Si Si 0.738 0.769 0.027 -0.393
Al Al 0.547 0.808 0.489 0.000
Al Al 0.378 0.646 0.833 0.000
Si Si 0.355 0.700 0.947 -0.393
Si Si 0.853 0.987 0.395 -0.393
Si Si 0.966 0.655 0.257 -0.393
Si Si 0.720 0.172 0.098 -0.393
Si Si 0.668 0.670 0.065 -0.393
Al Al 0.431 0.670 0.532 0.000
Si Si 0.008 0.351 0.362 -0.393
Al Al 0.233 0.544 0.872 0.000
Si Si 0.433 0.134 0.170 -0.393
Si Si 0.523 0.207 0.732 -0.393
Si Si 0.709 0.664 0.162 -0.393
Si Si 0.088 0.837 0.670 -0.393
