_cell_length_a 18.559
_cell_length_b 20.937
_cell_length_c 7.576
_cell_angle_alpha 90.000
_cell_angle_beta 90.000
_cell_angle_gamma 90.000
_cell_volume 2943.867

_symmetry_cell_setting triclinic
_symmetry_space_group_name_Hall 'P 1'
_symmetry_space_group_name_H-M 'P 1'
_symmetry_Int_Tables_number 1
_symmetry_equiv_pos_as_xyz 'x,y,z'

loop_
_atom_site_label
_atom_site_type_symbol
_atom_site_fract_x
_atom_site_fract_y
_atom_site_fract_z
_atom_site_charge
Si Si 0.265 0.410 0.116 -0.393
Al Al 0.750 0.781 0.864 0.000
Si Si 0.327 0.241 0.059 -0.393
Al Al 0.255 0.270 0.315 0.000
Si Si 0.082 0.285 0.174 -0.393
Si Si 0.535 0.701 0.060 -0.393
Si Si 0.402 0.414 0.122 -0.393
Si Si 0.752 0.179 0.283 -0.393
Si Si 0.964 0.718 0.498 -0.393
Al Al 0.891 0.273 0.906 0.000
Al Al 0.489 0.421 0.679 0.000
Si Si 0.065 0.063 0.155 -0.393
Al Al 0.127 0.475 0.917 0.000
Al Al 0.499 0.833 0.770 0.000
Al Al 0.607 0.714 0.283 0.000
Si Si 0.920 0.711 0.002 -0.393
Al Al 0.932 0.927 0.206 0.000
Si Si 0.273 0.983 0.050 -0.393
Si Si 0.940 0.845 0.310 -0.393
Si Si 0.066 0.057 0.996 -0.393
Si Si 0.042 0.523 0.533 -0.393
Al Al 0.295 0.994 0.851 0.000
Si Si 0.831 0.351 0.598 -0.393
Al Al 0.362 0.620 0.980 0.000
Si Si 0.821 0.166 0.470 -0.393
Si Si 0.308 0.587 0.758 -0.393
Si Si 0.713 0.588 0.268 -0.393
Si Si 0.610 0.148 0.084 -0.393
Al Al 0.740 0.450 0.012 0.000
Al Al 0.217 0.377 0.127 0.000
Al Al 0.931 0.747 0.936 0.000
Al Al 0.225 0.630 0.646 0.000
Si Si 0.254 0.584 0.204 -0.393
Si Si 0.501 0.834 0.674 -0.393
Si Si 0.100 0.767 0.764 -0.393
Al Al 0.389 0.951 0.384 0.000
Si Si 0.943 0.160 0.067 -0.393
Si Si 0.420 0.701 0.912 -0.393
Si Si 0.862 0.092 0.645 -0.393
Si Si 0.204 0.245 0.042 -0.393
Si Si 0.233 0.278 0.812 -0.393
Si Si 0.653 0.240 0.809 -0.393
Si Si 0.407 0.112 0.040 -0.393
Al Al 0.823 0.496 0.920 0.000
Si Si 0.829 0.758 0.711 -0.393
Al Al 0.029 0.745 0.762 0.000
Si Si 0.200 0.961 0.816 -0.393
Si Si 0.282 0.172 0.842 -0.393
