_cell_length_a 18.298
_cell_length_b 20.472
_cell_length_c 7.627
_cell_angle_alpha 90.000
_cell_angle_beta 90.000
_cell_angle_gamma 90.000
_cell_volume 2857.109

_symmetry_cell_setting triclinic
_symmetry_space_group_name_Hall 'P 1'
_symmetry_space_group_name_H-M 'P 1'
_symmetry_Int_Tables_number 1
_symmetry_equiv_pos_as_xyz 'x,y,z'

loop_
_atom_site_label
_atom_site_type_symbol
_atom_site_fract_x
_atom_site_fract_y
_atom_site_fract_z
_atom_site_charge
Si Si 0.525 0.189 0.432 -0.393
Si Si 0.505 0.033 0.949 -0.393
Si Si 0.197 0.327 0.488 -0.393
Si Si 0.812 0.667 0.699 -0.393
Al Al 0.478 0.626 0.960 0.000
Si Si 0.441 0.499 0.346 -0.393
Si Si 0.539 0.781 0.003 -0.393
Al Al 0.892 0.582 0.315 0.000
Si Si 0.867 0.294 0.943 -0.393
Si Si 0.935 0.058 0.749 -0.393
Si Si 0.702 0.396 0.147 -0.393
Si Si 0.984 0.122 0.720 -0.393
Si Si 0.158 0.540 0.538 -0.393
Si Si 0.256 0.387 0.524 -0.393
Si Si 0.068 0.534 0.043 -0.393
Si Si 0.420 0.308 0.196 -0.393
Al Al 0.902 0.245 0.673 0.000
Si Si 0.982 0.644 0.111 -0.393
Si Si 0.525 0.864 0.035 -0.393
Si Si 0.178 0.043 0.710 -0.393
Si Si 0.374 0.439 0.513 -0.393
Si Si 0.858 0.795 0.583 -0.393
Si Si 0.530 0.907 0.843 -0.393
Si Si 0.946 0.769 0.777 -0.393
Si Si 0.720 0.865 0.455 -0.393
Si Si 0.210 0.874 0.651 -0.393
Si Si 0.721 0.361 0.146 -0.393
Si Si 0.183 0.048 0.354 -0.393
Si Si 0.412 0.988 0.821 -0.393
Si Si 0.517 0.247 0.238 -0.393
Si Si 0.811 0.299 0.209 -0.393
Si Si 0.752 0.431 0.296 -0.393
Si Si 0.066 0.114 0.509 -0.393
Si Si 0.890 0.325 0.333 -0.393
Si Si 0.733 0.375 0.152 -0.393
Si Si 0.628 0.873 0.095 -0.393
Si Si 0.136 0.762 0.510 -0.393
Si Si 0.092 0.864 0.682 -0.393
Si Si 0.069 0.787 0.364 -0.393
Si Si 0.388 0.468 0.856 -0.393
Si Si 0.979 0.893 0.526 -0.393
Si Si 0.101 0.514 0.731 -0.393
Si Si 0.182 0.801 0.971 -0.393
Si Si 0.647 0.995 0.045 -0.393
Si Si 0.873 0.753 0.781 -0.393
Si Si 0.567 0.133 0.331 -0.393
Si Si 0.474 0.948 0.792 -0.393
Si Si 0.465 0.164 0.191 -0.393
