_cell_length_a 18.415
_cell_length_b 20.635
_cell_length_c 7.532
_cell_angle_alpha 90.000
_cell_angle_beta 90.000
_cell_angle_gamma 90.000
_cell_volume 2862.312

_symmetry_cell_setting triclinic
_symmetry_space_group_name_Hall 'P 1'
_symmetry_space_group_name_H-M 'P 1'
_symmetry_Int_Tables_number 1
_symmetry_equiv_pos_as_xyz 'x,y,z'

loop_
_atom_site_label
_atom_site_type_symbol
_atom_site_fract_x
_atom_site_fract_y
_atom_site_fract_z
_atom_site_charge
Si Si 0.561 0.982 0.450 -0.393
Si Si 0.504 0.874 0.082 -0.393
Si Si 0.320 0.738 0.080 -0.393
Si Si 0.984 0.984 0.328 -0.393
Si Si 0.812 0.107 0.908 -0.393
Si Si 0.073 0.680 0.235 -0.393
Si Si 0.665 0.203 0.764 -0.393
Si Si 0.477 0.892 0.754 -0.393
Si Si 0.839 0.587 0.564 -0.393
Si Si 0.344 0.314 0.388 -0.393
Si Si 0.927 0.497 0.721 -0.393
Si Si 0.609 0.686 0.658 -0.393
Si Si 0.821 0.649 0.278 -0.393
Si Si 0.947 1.000 0.334 -0.393
Si Si 0.185 0.148 0.665 -0.393
Si Si 0.983 0.030 0.338 -0.393
Si Si 0.056 0.315 0.638 -0.393
Si Si 0.118 0.001 0.424 -0.393
Si Si 0.363 0.785 0.585 -0.393
Si Si 0.004 0.497 0.500 -0.393
Si Si 0.477 0.193 0.988 -0.393
Si Si 0.872 0.244 0.550 -0.393
Si Si 0.041 0.102 0.838 -0.393
Si Si 0.361 0.280 0.930 -0.393
Si Si 0.945 0.598 0.491 -0.393
Si Si 0.718 0.985 0.848 -0.393
Si Si 0.181 0.842 0.174 -0.393
Si Si 0.774 0.360 0.208 -0.393
Si Si 0.844 0.037 0.193 -0.393
Si Si 0.599 0.358 0.025 -0.393
Si Si 0.783 0.903 0.309 -0.393
Al Al 0.907 0.502 0.919 0.000
Si Si 0.225 0.180 0.473 -0.393
Si Si 0.977 0.863 0.416 -0.393
Si Si 0.354 0.512 0.638 -0.393
Si Si 0.337 0.487 0.587 -0.393
Si Si 0.556 0.975 0.928 -0.393
Si Si 0.143 0.684 0.245 -0.393
Si Si 0.352 0.321 0.418 -0.393
Si Si 0.076 0.089 0.252 -0.393
Si Si 0.380 0.678 0.613 -0.393
Si Si 0.552 0.566 0.015 -0.393
Si Si 0.176 0.105 0.318 -0.393
Si Si 0.537 0.184 0.561 -0.393
Si Si 0.385 0.487 0.743 -0.393
Si Si 0.846 0.691 0.369 -0.393
Si Si 0.220 0.802 0.648 -0.393
Si Si 0.586 0.923 0.953 -0.393
