_cell_length_a 18.450
_cell_length_b 20.660
_cell_length_c 7.600
_cell_angle_alpha 90.000
_cell_angle_beta 90.000
_cell_angle_gamma 90.000
_cell_volume 2897.017

_symmetry_cell_setting triclinic
_symmetry_space_group_name_Hall 'P 1'
_symmetry_space_group_name_H-M 'P 1'
_symmetry_Int_Tables_number 1
_symmetry_equiv_pos_as_xyz 'x,y,z'

loop_
_atom_site_label
_atom_site_type_symbol
_atom_site_fract_x
_atom_site_fract_y
_atom_site_fract_z
_atom_site_charge
Si Si 0.050 0.273 0.282 -0.393
Si Si 0.700 0.573 0.032 -0.393
Si Si 0.558 0.439 0.685 -0.393
Al Al 0.004 0.649 0.795 0.000
Si Si 0.541 0.092 0.104 -0.393
Si Si 0.370 0.695 0.144 -0.393
Si Si 0.153 0.156 0.815 -0.393
Si Si 0.589 0.006 0.191 -0.393
Si Si 0.600 0.421 0.536 -0.393
Si Si 0.346 0.767 0.089 -0.393
Si Si 0.713 0.551 0.013 -0.393
Si Si 0.298 0.048 0.144 -0.393
Si Si 0.757 0.625 0.930 -0.393
Si Si 0.631 0.050 0.162 -0.393
Si Si 0.900 0.305 0.438 -0.393
Si Si 0.866 0.929 0.829 -0.393
Si Si 0.626 0.083 0.164 -0.393
Si Si 0.243 0.039 0.622 -0.393
Si Si 0.824 0.431 0.737 -0.393
Si Si 0.101 0.661 0.565 -0.393
Si Si 0.661 0.171 0.266 -0.393
Si Si 0.922 0.774 0.764 -0.393
Si Si 0.936 0.386 0.673 -0.393
Si Si 0.107 0.364 0.191 -0.393
Si Si 0.027 0.312 0.993 -0.393
Si Si 0.266 0.444 0.626 -0.393
Si Si 0.343 0.705 0.402 -0.393
Si Si 0.038 0.693 0.148 -0.393
Si Si 0.291 0.944 0.736 -0.393
Al Al 0.297 0.619 0.732 0.000
Si Si 0.781 0.980 0.718 -0.393
Si Si 0.469 0.310 0.785 -0.393
Al Al 0.275 0.110 0.724 0.000
Si Si 0.145 0.417 0.258 -0.393
Si Si 0.576 0.474 0.555 -0.393
Si Si 0.459 0.985 0.242 -0.393
Si Si 0.696 0.203 0.620 -0.393
Si Si 0.066 0.745 0.049 -0.393
Si Si 0.393 0.776 0.655 -0.393
Si Si 0.758 0.897 0.667 -0.393
Si Si 0.079 0.330 0.901 -0.393
Si Si 0.185 0.579 0.251 -0.393
Si Si 0.005 0.555 0.367 -0.393
Si Si 0.242 0.974 0.024 -0.393
Si Si 0.639 0.993 0.201 -0.393
Si Si 0.803 0.770 0.782 -0.393
Si Si 0.490 0.550 0.882 -0.393
Si Si 0.097 0.980 0.601 -0.393
