_cell_length_a 18.341
_cell_length_b 20.580
_cell_length_c 7.649
_cell_angle_alpha 90.000
_cell_angle_beta 90.000
_cell_angle_gamma 90.000
_cell_volume 2886.948

_symmetry_cell_setting triclinic
_symmetry_space_group_name_Hall 'P 1'
_symmetry_space_group_name_H-M 'P 1'
_symmetry_Int_Tables_number 1
_symmetry_equiv_pos_as_xyz 'x,y,z'

loop_
_atom_site_label
_atom_site_type_symbol
_atom_site_fract_x
_atom_site_fract_y
_atom_site_fract_z
_atom_site_charge
Si Si 0.294 0.361 0.725 -0.393
Si Si 0.805 0.725 0.236 -0.393
Si Si 0.697 0.683 0.874 -0.393
Si Si 0.748 0.715 0.179 -0.393
Si Si 0.392 0.645 0.552 -0.393
Si Si 0.212 0.528 0.757 -0.393
Si Si 0.500 0.932 0.281 -0.393
Si Si 0.955 0.944 0.336 -0.393
Si Si 0.551 0.814 0.291 -0.393
Si Si 0.847 0.153 0.029 -0.393
Si Si 0.199 0.915 0.047 -0.393
Si Si 0.838 0.935 0.591 -0.393
Si Si 0.084 0.554 0.672 -0.393
Si Si 0.009 0.280 0.474 -0.393
Si Si 0.134 0.991 0.682 -0.393
Si Si 0.403 0.952 0.123 -0.393
Si Si 0.360 0.240 0.355 -0.393
Si Si 0.504 0.368 0.617 -0.393
Si Si 0.317 0.194 0.535 -0.393
Si Si 0.338 0.298 0.606 -0.393
Al Al 0.108 0.980 0.351 0.000
Si Si 0.906 0.352 0.716 -0.393
Si Si 0.672 0.138 0.728 -0.393
Si Si 0.574 0.421 0.763 -0.393
Si Si 0.201 0.251 0.133 -0.393
Al Al 0.004 0.091 0.122 0.000
Si Si 0.310 0.041 0.252 -0.393
Si Si 0.669 0.454 0.878 -0.393
Si Si 0.586 0.661 0.477 -0.393
Si Si 0.954 0.254 0.049 -0.393
Si Si 0.944 0.512 0.759 -0.393
Si Si 0.594 0.155 0.533 -0.393
Si Si 0.313 0.968 0.585 -0.393
Si Si 0.733 0.355 0.343 -0.393
Si Si 0.274 0.749 0.705 -0.393
Si Si 0.232 0.850 0.944 -0.393
Si Si 0.999 0.810 0.501 -0.393
Si Si 0.928 0.475 0.080 -0.393
Si Si 0.344 0.558 0.781 -0.393
Si Si 0.971 0.427 0.396 -0.393
Si Si 0.249 0.667 0.394 -0.393
Si Si 0.329 0.594 0.301 -0.393
Si Si 0.796 0.785 0.017 -0.393
Si Si 0.435 0.608 0.742 -0.393
Si Si 0.860 0.336 0.954 -0.393
Si Si 0.469 0.764 0.888 -0.393
Si Si 0.629 0.313 0.876 -0.393
Si Si 0.944 0.964 0.219 -0.393
