_cell_length_a 18.098
_cell_length_b 20.503
_cell_length_c 7.511
_cell_angle_alpha 90.000
_cell_angle_beta 90.000
_cell_angle_gamma 90.000
_cell_volume 2786.946

_symmetry_cell_setting triclinic
_symmetry_space_group_name_Hall 'P 1'
_symmetry_space_group_name_H-M 'P 1'
_symmetry_Int_Tables_number 1
_symmetry_equiv_pos_as_xyz 'x,y,z'

loop_
_atom_site_label
_atom_site_type_symbol
_atom_site_fract_x
_atom_site_fract_y
_atom_site_fract_z
_atom_site_charge
Si Si 0.297 0.347 0.252 -0.393
Si Si 0.908 0.815 0.482 -0.393
Si Si 0.135 0.166 0.162 -0.393
Si Si 0.623 0.516 0.455 -0.393
Si Si 0.035 0.786 0.331 -0.393
Si Si 0.193 0.417 0.667 -0.393
Si Si 0.791 0.947 0.826 -0.393
Si Si 0.375 0.566 0.494 -0.393
Si Si 0.280 0.988 0.636 -0.393
Si Si 0.862 0.014 0.918 -0.393
Si Si 0.295 0.601 0.499 -0.393
Si Si 0.109 0.601 0.685 -0.393
Si Si 0.265 0.066 0.926 -0.393
Al Al 0.006 0.767 0.040 0.000
Al Al 0.670 0.150 0.745 0.000
Si Si 0.212 0.908 0.327 -0.393
Si Si 0.981 0.817 0.410 -0.393
Si Si 0.925 0.598 0.797 -0.393
Si Si 0.182 0.832 0.084 -0.393
Si Si 0.643 0.667 0.496 -0.393
Si Si 0.597 0.130 0.604 -0.393
Al Al 0.686 0.526 0.682 0.000
Si Si 0.592 0.219 0.205 -0.393
Si Si 0.242 0.329 0.832 -0.393
Si Si 0.881 0.036 0.623 -0.393
Si Si 0.340 0.790 0.799 -0.393
Al Al 1.000 0.378 0.508 0.000
Si Si 0.816 0.437 0.467 -0.393
Si Si 0.944 0.383 0.344 -0.393
Si Si 0.508 0.652 0.396 -0.393
Si Si 0.798 0.780 0.417 -0.393
Si Si 0.547 0.301 0.123 -0.393
Si Si 0.165 0.514 0.694 -0.393
Si Si 0.459 0.916 0.425 -0.393
Si Si 0.724 0.702 0.075 -0.393
Si Si 0.893 0.263 0.512 -0.393
Si Si 0.346 0.816 0.674 -0.393
Si Si 0.563 0.869 0.201 -0.393
Si Si 0.705 0.274 0.180 -0.393
Si Si 0.800 0.434 0.854 -0.393
Si Si 0.178 0.116 0.723 -0.393
Si Si 0.659 0.009 0.209 -0.393
Si Si 0.393 0.016 0.823 -0.393
Si Si 0.755 0.402 0.037 -0.393
Si Si 0.608 0.324 0.534 -0.393
Si Si 0.119 0.727 0.963 -0.393
Si Si 0.997 0.414 0.385 -0.393
Si Si 0.647 0.725 0.389 -0.393
