_cell_length_a 18.396
_cell_length_b 20.696
_cell_length_c 7.557
_cell_angle_alpha 90.000
_cell_angle_beta 90.000
_cell_angle_gamma 90.000
_cell_volume 2876.964

_symmetry_cell_setting triclinic
_symmetry_space_group_name_Hall 'P 1'
_symmetry_space_group_name_H-M 'P 1'
_symmetry_Int_Tables_number 1
_symmetry_equiv_pos_as_xyz 'x,y,z'

loop_
_atom_site_label
_atom_site_type_symbol
_atom_site_fract_x
_atom_site_fract_y
_atom_site_fract_z
_atom_site_charge
Si Si 0.405 0.118 0.054 -0.393
Si Si 0.044 0.978 0.870 -0.393
Si Si 0.834 0.075 0.079 -0.393
Si Si 0.788 0.065 0.951 -0.393
Si Si 0.990 0.391 0.605 -0.393
Si Si 0.430 0.591 0.257 -0.393
Si Si 0.328 0.730 0.695 -0.393
Si Si 0.314 0.576 0.533 -0.393
Si Si 0.427 0.079 0.319 -0.393
Si Si 0.806 0.583 0.225 -0.393
Si Si 0.360 0.327 0.392 -0.393
Si Si 0.593 0.736 0.545 -0.393
Si Si 0.808 0.828 0.262 -0.393
Si Si 0.304 0.874 0.029 -0.393
Si Si 0.404 0.541 0.070 -0.393
Si Si 0.960 0.304 0.041 -0.393
Si Si 0.104 0.261 0.912 -0.393
Si Si 0.751 0.553 0.693 -0.393
Si Si 0.455 0.899 0.631 -0.393
Al Al 0.615 0.175 0.280 0.000
Si Si 0.253 0.231 0.021 -0.393
Si Si 0.075 0.257 0.607 -0.393
Si Si 0.544 0.159 0.082 -0.393
Si Si 0.730 0.425 0.301 -0.393
Si Si 0.788 0.433 0.245 -0.393
Si Si 0.147 0.480 0.047 -0.393
Si Si 0.521 0.877 0.211 -0.393
Si Si 0.506 0.583 0.096 -0.393
Si Si 0.734 0.963 0.145 -0.393
Al Al 0.045 0.115 0.941 0.000
Si Si 0.818 0.084 0.209 -0.393
Si Si 0.469 0.589 0.030 -0.393
Si Si 0.787 0.669 0.537 -0.393
Si Si 0.703 0.096 0.059 -0.393
Si Si 0.316 0.374 0.958 -0.393
Si Si 0.052 0.951 0.837 -0.393
Si Si 0.641 0.060 0.574 -0.393
Si Si 0.488 0.807 0.489 -0.393
Si Si 0.302 0.835 0.384 -0.393
Si Si 0.851 0.917 0.355 -0.393
Si Si 0.573 0.928 0.469 -0.393
Si Si 0.914 0.031 0.181 -0.393
Si Si 0.639 0.592 0.572 -0.393
Si Si 0.423 0.233 0.320 -0.393
Si Si 0.179 0.542 0.409 -0.393
Si Si 0.155 0.402 0.758 -0.393
Si Si 0.993 0.979 0.871 -0.393
Si Si 0.713 0.098 0.731 -0.393
