_cell_length_a 18.447
_cell_length_b 20.708
_cell_length_c 7.679
_cell_angle_alpha 90.000
_cell_angle_beta 90.000
_cell_angle_gamma 90.000
_cell_volume 2933.417

_symmetry_cell_setting triclinic
_symmetry_space_group_name_Hall 'P 1'
_symmetry_space_group_name_H-M 'P 1'
_symmetry_Int_Tables_number 1
_symmetry_equiv_pos_as_xyz 'x,y,z'

loop_
_atom_site_label
_atom_site_type_symbol
_atom_site_fract_x
_atom_site_fract_y
_atom_site_fract_z
_atom_site_charge
Si Si 0.201 0.545 0.554 -0.393
Si Si 0.155 0.147 0.309 -0.393
Si Si 0.727 0.650 0.155 -0.393
Si Si 0.319 0.093 0.620 -0.393
Si Si 0.712 0.956 0.698 -0.393
Si Si 0.991 0.164 0.143 -0.393
Si Si 0.674 0.213 0.523 -0.393
Si Si 0.506 0.518 0.559 -0.393
Al Al 0.935 0.081 0.079 0.000
Si Si 0.641 0.078 0.289 -0.393
Si Si 0.521 0.871 0.990 -0.393
Si Si 0.087 0.521 0.008 -0.393
Si Si 0.305 0.076 0.150 -0.393
Si Si 0.192 0.198 0.639 -0.393
Al Al 0.073 0.142 0.780 0.000
Si Si 0.404 0.464 0.661 -0.393
Si Si 0.485 0.525 0.640 -0.393
Si Si 0.702 0.618 0.824 -0.393
Si Si 0.169 0.684 0.284 -0.393
Si Si 0.995 0.865 0.631 -0.393
Si Si 0.448 0.295 0.032 -0.393
Si Si 0.225 0.275 0.126 -0.393
Si Si 0.764 0.342 0.115 -0.393
Si Si 0.214 0.830 0.958 -0.393
Si Si 0.857 0.656 0.863 -0.393
Si Si 0.390 0.906 0.024 -0.393
Si Si 0.156 0.263 0.900 -0.393
Si Si 0.715 0.733 0.511 -0.393
Si Si 0.793 0.484 0.345 -0.393
Al Al 0.165 0.872 1.000 0.000
Si Si 0.025 0.199 0.740 -0.393
Si Si 0.599 0.551 0.414 -0.393
Si Si 0.106 0.292 0.488 -0.393
Si Si 0.533 0.119 0.607 -0.393
Si Si 0.525 0.017 0.571 -0.393
Si Si 0.658 0.467 0.510 -0.393
Si Si 0.914 0.053 0.981 -0.393
Si Si 0.179 0.705 0.931 -0.393
Si Si 0.116 0.534 0.307 -0.393
Si Si 0.611 0.406 0.292 -0.393
Si Si 0.840 0.771 0.137 -0.393
Si Si 0.811 0.287 0.729 -0.393
Si Si 0.408 0.858 0.128 -0.393
Si Si 0.345 0.554 0.772 -0.393
Si Si 0.788 0.599 0.978 -0.393
Si Si 0.931 0.862 0.684 -0.393
Si Si 0.514 0.543 0.531 -0.393
Si Si 0.570 0.844 0.899 -0.393
