_cell_length_a 18.311
_cell_length_b 20.378
_cell_length_c 7.567
_cell_angle_alpha 90.000
_cell_angle_beta 90.000
_cell_angle_gamma 90.000
_cell_volume 2823.444

_symmetry_cell_setting triclinic
_symmetry_space_group_name_Hall 'P 1'
_symmetry_space_group_name_H-M 'P 1'
_symmetry_Int_Tables_number 1
_symmetry_equiv_pos_as_xyz 'x,y,z'

loop_
_atom_site_label
_atom_site_type_symbol
_atom_site_fract_x
_atom_site_fract_y
_atom_site_fract_z
_atom_site_charge
Si Si 0.012 0.889 0.253 -0.393
Si Si 0.070 0.328 0.318 -0.393
Si Si 0.194 0.442 0.838 -0.393
Si Si 0.654 0.611 0.214 -0.393
Si Si 0.034 0.708 0.158 -0.393
Si Si 0.880 0.209 0.145 -0.393
Si Si 0.089 0.323 0.077 -0.393
Si Si 0.438 0.875 0.290 -0.393
Si Si 0.104 0.771 0.548 -0.393
Si Si 0.687 0.534 0.766 -0.393
Al Al 0.769 0.596 0.815 0.000
Si Si 0.565 0.359 0.606 -0.393
Si Si 0.100 0.935 0.018 -0.393
Si Si 0.742 0.700 0.233 -0.393
Si Si 0.055 0.341 0.013 -0.393
Si Si 0.801 0.632 0.654 -0.393
Si Si 0.982 0.447 0.616 -0.393
Si Si 0.939 0.664 0.942 -0.393
Si Si 0.660 0.477 0.088 -0.393
Si Si 0.638 0.269 0.385 -0.393
Si Si 0.718 0.947 0.388 -0.393
Si Si 0.256 0.171 0.096 -0.393
Si Si 0.203 0.516 0.334 -0.393
Si Si 0.305 0.980 0.861 -0.393
Si Si 0.295 0.684 0.464 -0.393
Si Si 0.174 0.414 0.182 -0.393
Si Si 0.991 0.980 0.691 -0.393
Si Si 0.681 0.161 0.201 -0.393
Si Si 0.787 0.541 0.243 -0.393
Si Si 0.582 0.203 0.021 -0.393
Si Si 0.125 0.332 0.931 -0.393
Si Si 0.766 0.881 0.518 -0.393
Si Si 0.385 0.779 0.019 -0.393
Si Si 0.439 0.968 0.953 -0.393
Si Si 0.519 0.743 0.038 -0.393
Al Al 0.632 0.923 0.299 0.000
Si Si 0.403 0.875 0.786 -0.393
Si Si 0.540 0.140 0.064 -0.393
Si Si 0.007 0.127 0.596 -0.393
Si Si 0.958 0.015 0.494 -0.393
Si Si 0.027 0.920 0.215 -0.393
Si Si 0.740 0.846 0.901 -0.393
Si Si 0.421 0.358 0.352 -0.393
Si Si 0.438 0.468 0.328 -0.393
Si Si 0.734 0.907 0.507 -0.393
Si Si 0.425 0.862 0.725 -0.393
Si Si 0.278 0.979 0.569 -0.393
Si Si 0.374 0.025 0.974 -0.393
