_cell_length_a 17.907
_cell_length_b 20.347
_cell_length_c 7.483
_cell_angle_alpha 90.000
_cell_angle_beta 90.000
_cell_angle_gamma 90.000
_cell_volume 2726.265

_symmetry_cell_setting triclinic
_symmetry_space_group_name_Hall 'P 1'
_symmetry_space_group_name_H-M 'P 1'
_symmetry_Int_Tables_number 1
_symmetry_equiv_pos_as_xyz 'x,y,z'

loop_
_atom_site_label
_atom_site_type_symbol
_atom_site_fract_x
_atom_site_fract_y
_atom_site_fract_z
_atom_site_charge
Si Si 0.359 0.621 0.822 -0.393
Si Si 0.219 0.167 0.983 -0.393
Al Al 0.452 0.797 0.222 0.000
Si Si 0.830 0.877 0.991 -0.393
Si Si 0.463 0.673 0.743 -0.393
Si Si 0.246 0.660 0.897 -0.393
Si Si 0.815 0.748 0.671 -0.393
Si Si 0.422 0.220 0.334 -0.393
Si Si 0.373 0.772 0.349 -0.393
Si Si 0.128 0.656 0.343 -0.393
Si Si 0.327 0.277 0.514 -0.393
Si Si 0.654 0.416 0.190 -0.393
Si Si 0.052 0.910 0.453 -0.393
Si Si 0.759 0.612 0.999 -0.393
Si Si 0.346 0.676 0.369 -0.393
Si Si 0.812 0.081 0.115 -0.393
Si Si 0.549 0.509 0.923 -0.393
Si Si 0.577 0.070 0.289 -0.393
Si Si 0.866 0.755 0.421 -0.393
Si Si 0.080 0.464 0.452 -0.393
Si Si 0.681 0.020 0.918 -0.393
Al Al 0.634 0.021 0.059 0.000
Si Si 0.059 0.432 0.477 -0.393
Si Si 0.459 0.788 0.632 -0.393
Si Si 0.067 0.398 0.607 -0.393
Si Si 0.395 0.442 0.916 -0.393
Si Si 0.185 0.983 0.281 -0.393
Si Si 0.422 0.554 0.798 -0.393
Si Si 0.251 0.787 0.714 -0.393
Si Si 0.242 0.379 0.523 -0.393
Si Si 0.163 0.987 0.562 -0.393
Si Si 0.606 0.349 0.621 -0.393
Si Si 0.484 0.690 0.202 -0.393
Si Si 0.930 0.975 0.027 -0.393
Si Si 0.922 0.419 0.056 -0.393
Si Si 0.445 0.922 0.282 -0.393
Si Si 0.775 0.251 0.573 -0.393
Si Si 0.344 0.460 0.112 -0.393
Si Si 0.820 0.164 0.324 -0.393
Si Si 0.521 0.975 0.098 -0.393
Si Si 0.187 0.348 0.327 -0.393
Si Si 0.660 0.067 0.923 -0.393
Si Si 0.932 0.274 0.647 -0.393
Si Si 0.359 0.976 0.248 -0.393
Si Si 0.397 0.478 0.904 -0.393
Si Si 0.537 0.030 0.501 -0.393
Si Si 0.000 0.750 0.482 -0.393
Si Si 0.771 0.950 0.446 -0.393
