_cell_length_a 18.279
_cell_length_b 20.499
_cell_length_c 7.540
_cell_angle_alpha 90.000
_cell_angle_beta 90.000
_cell_angle_gamma 90.000
_cell_volume 2825.086

_symmetry_cell_setting triclinic
_symmetry_space_group_name_Hall 'P 1'
_symmetry_space_group_name_H-M 'P 1'
_symmetry_Int_Tables_number 1
_symmetry_equiv_pos_as_xyz 'x,y,z'

loop_
_atom_site_label
_atom_site_type_symbol
_atom_site_fract_x
_atom_site_fract_y
_atom_site_fract_z
_atom_site_charge
Si Si 0.664 0.068 0.052 -0.393
Si Si 0.562 0.842 0.311 -0.393
Si Si 0.579 0.394 0.386 -0.393
Si Si 0.911 0.089 0.563 -0.393
Si Si 0.399 0.209 0.733 -0.393
Si Si 0.598 0.374 0.686 -0.393
Si Si 0.378 0.935 0.210 -0.393
Si Si 0.976 0.290 0.704 -0.393
Si Si 0.600 0.759 0.127 -0.393
Al Al 0.235 0.062 0.899 0.000
Si Si 0.111 0.415 0.951 -0.393
Si Si 0.475 0.734 0.987 -0.393
Si Si 0.659 0.517 0.665 -0.393
Si Si 0.880 0.389 0.088 -0.393
Si Si 0.322 0.492 0.804 -0.393
Si Si 0.927 0.207 0.699 -0.393
Si Si 0.895 0.939 0.380 -0.393
Si Si 0.157 0.926 0.478 -0.393
Si Si 0.859 0.603 0.876 -0.393
Si Si 0.161 0.842 0.538 -0.393
Al Al 0.506 0.640 0.786 0.000
Al Al 0.299 0.244 0.347 0.000
Si Si 0.003 0.540 0.569 -0.393
Si Si 0.090 0.956 0.551 -0.393
Si Si 0.898 0.862 0.546 -0.393
Si Si 0.439 0.630 0.881 -0.393
Si Si 0.206 0.257 0.845 -0.393
Si Si 0.053 0.658 0.761 -0.393
Si Si 0.012 0.573 0.510 -0.393
Si Si 0.602 0.330 0.595 -0.393
Si Si 0.486 0.286 0.652 -0.393
Si Si 0.492 0.971 0.101 -0.393
Si Si 0.485 0.961 0.317 -0.393
Si Si 0.267 0.760 0.179 -0.393
Si Si 0.962 0.472 0.100 -0.393
Si Si 0.192 0.134 0.194 -0.393
Al Al 0.497 0.776 0.348 0.000
Si Si 0.900 0.423 0.025 -0.393
Si Si 0.239 0.047 0.294 -0.393
Si Si 0.600 0.522 0.753 -0.393
Si Si 0.166 0.527 0.561 -0.393
Si Si 0.522 0.412 0.389 -0.393
Si Si 0.697 0.828 0.823 -0.393
Si Si 0.249 0.809 0.333 -0.393
Si Si 0.632 0.710 0.809 -0.393
Si Si 0.486 0.580 0.783 -0.393
Si Si 0.688 0.003 0.513 -0.393
Si Si 0.478 0.936 0.358 -0.393
