_cell_length_a 18.456
_cell_length_b 20.716
_cell_length_c 7.563
_cell_angle_alpha 90.000
_cell_angle_beta 90.000
_cell_angle_gamma 90.000
_cell_volume 2891.387

_symmetry_cell_setting triclinic
_symmetry_space_group_name_Hall 'P 1'
_symmetry_space_group_name_H-M 'P 1'
_symmetry_Int_Tables_number 1
_symmetry_equiv_pos_as_xyz 'x,y,z'

loop_
_atom_site_label
_atom_site_type_symbol
_atom_site_fract_x
_atom_site_fract_y
_atom_site_fract_z
_atom_site_charge
Si Si 0.128 0.186 0.005 -0.393
Al Al 0.868 0.691 0.537 0.000
Si Si 0.234 0.954 0.341 -0.393
Si Si 0.341 0.199 0.099 -0.393
Si Si 0.958 0.751 0.243 -0.393
Si Si 0.443 0.867 0.575 -0.393
Si Si 0.683 0.029 0.179 -0.393
Si Si 0.894 0.249 0.994 -0.393
Si Si 0.740 0.888 0.588 -0.393
Si Si 0.135 0.787 0.122 -0.393
Si Si 0.983 0.936 0.806 -0.393
Si Si 0.754 0.377 0.086 -0.393
Si Si 0.444 0.068 0.303 -0.393
Si Si 0.111 0.478 0.142 -0.393
Si Si 0.261 0.263 0.081 -0.393
Si Si 0.103 0.598 0.129 -0.393
Si Si 0.337 0.942 0.283 -0.393
Si Si 0.666 0.879 0.814 -0.393
Si Si 0.546 0.426 0.230 -0.393
Si Si 0.617 0.643 0.373 -0.393
Si Si 0.362 0.784 0.573 -0.393
Si Si 0.971 0.596 0.742 -0.393
Si Si 0.475 0.307 0.755 -0.393
Si Si 0.676 0.494 0.525 -0.393
Si Si 0.947 0.814 0.885 -0.393
Si Si 0.013 0.126 0.875 -0.393
Si Si 0.454 0.327 0.886 -0.393
Si Si 0.200 0.440 0.123 -0.393
Si Si 0.730 0.357 0.081 -0.393
Si Si 0.473 0.163 0.933 -0.393
Si Si 0.720 0.235 0.145 -0.393
Si Si 0.413 0.949 0.670 -0.393
Si Si 0.598 0.033 0.924 -0.393
Si Si 0.091 0.292 0.142 -0.393
Si Si 0.939 0.197 0.576 -0.393
Si Si 0.507 0.659 0.109 -0.393
Si Si 0.246 0.228 0.495 -0.393
Si Si 0.796 0.076 0.074 -0.393
Si Si 0.451 0.218 0.330 -0.393
Si Si 0.746 0.040 0.034 -0.393
Si Si 0.838 0.975 0.696 -0.393
Si Si 0.716 0.531 0.358 -0.393
Si Si 0.506 0.437 0.933 -0.393
Si Si 0.317 0.810 0.440 -0.393
Si Si 0.867 0.325 0.098 -0.393
Si Si 0.735 0.731 0.745 -0.393
Si Si 0.397 0.606 0.294 -0.393
Si Si 0.267 0.760 0.914 -0.393
