_cell_length_a 18.267
_cell_length_b 20.286
_cell_length_c 7.568
_cell_angle_alpha 90.000
_cell_angle_beta 90.000
_cell_angle_gamma 90.000
_cell_volume 2804.291

_symmetry_cell_setting triclinic
_symmetry_space_group_name_Hall 'P 1'
_symmetry_space_group_name_H-M 'P 1'
_symmetry_Int_Tables_number 1
_symmetry_equiv_pos_as_xyz 'x,y,z'

loop_
_atom_site_label
_atom_site_type_symbol
_atom_site_fract_x
_atom_site_fract_y
_atom_site_fract_z
_atom_site_charge
Si Si 0.028 0.917 0.701 -0.393
Si Si 0.134 0.725 0.590 -0.393
Al Al 0.445 0.851 0.383 0.000
Si Si 0.547 0.450 0.838 -0.393
Al Al 0.445 0.283 0.286 0.000
Si Si 0.804 0.986 0.014 -0.393
Al Al 0.271 0.165 0.648 0.000
Al Al 0.067 0.982 0.054 0.000
Si Si 0.997 0.443 0.808 -0.393
Al Al 0.972 0.591 0.948 0.000
Si Si 0.973 0.514 0.008 -0.393
Si Si 0.866 0.622 0.419 -0.393
Si Si 0.537 0.243 0.013 -0.393
Si Si 0.979 0.362 0.877 -0.393
Si Si 0.325 0.748 0.482 -0.393
Si Si 0.936 0.508 0.695 -0.393
Si Si 0.763 0.044 0.814 -0.393
Si Si 0.073 0.466 0.510 -0.393
Si Si 0.325 0.441 0.868 -0.393
Si Si 0.954 0.609 0.605 -0.393
Si Si 0.768 0.734 0.856 -0.393
Si Si 0.695 0.868 0.915 -0.393
Si Si 0.772 0.048 0.060 -0.393
Si Si 0.125 0.129 0.025 -0.393
Si Si 0.505 0.268 0.767 -0.393
Si Si 0.180 0.380 0.038 -0.393
Si Si 0.595 0.539 0.643 -0.393
Si Si 0.356 0.015 0.875 -0.393
Si Si 0.165 0.041 0.477 -0.393
Al Al 0.148 0.183 0.366 0.000
Si Si 0.970 0.122 0.234 -0.393
Si Si 0.611 0.865 0.897 -0.393
Si Si 0.133 0.643 0.892 -0.393
Si Si 0.493 0.569 0.445 -0.393
Al Al 0.997 0.271 0.742 0.000
Si Si 0.644 0.036 0.033 -0.393
Al Al 0.090 0.479 0.345 0.000
Al Al 0.381 0.121 0.045 0.000
Si Si 0.521 0.792 0.335 -0.393
Si Si 0.287 0.173 0.709 -0.393
Si Si 0.402 0.346 0.469 -0.393
Si Si 0.415 0.248 0.513 -0.393
Si Si 0.625 0.298 0.832 -0.393
Al Al 0.832 0.782 0.374 0.000
Si Si 0.365 0.739 0.248 -0.393
Si Si 0.987 0.989 0.826 -0.393
Si Si 0.017 0.989 0.071 -0.393
Si Si 0.631 0.170 0.082 -0.393
