_cell_length_a 18.226
_cell_length_b 20.668
_cell_length_c 7.578
_cell_angle_alpha 90.000
_cell_angle_beta 90.000
_cell_angle_gamma 90.000
_cell_volume 2854.593

_symmetry_cell_setting triclinic
_symmetry_space_group_name_Hall 'P 1'
_symmetry_space_group_name_H-M 'P 1'
_symmetry_Int_Tables_number 1
_symmetry_equiv_pos_as_xyz 'x,y,z'

loop_
_atom_site_label
_atom_site_type_symbol
_atom_site_fract_x
_atom_site_fract_y
_atom_site_fract_z
_atom_site_charge
Si Si 0.972 0.585 0.708 -0.393
Si Si 0.833 0.568 0.220 -0.393
Si Si 0.134 0.265 0.177 -0.393
Si Si 0.966 0.917 0.389 -0.393
Si Si 0.452 0.965 0.494 -0.393
Si Si 0.286 0.334 0.896 -0.393
Si Si 0.974 0.821 0.732 -0.393
Si Si 0.435 0.447 0.811 -0.393
Si Si 0.131 0.521 0.426 -0.393
Si Si 0.519 0.652 0.036 -0.393
Si Si 0.311 0.709 0.209 -0.393
Si Si 0.055 0.253 0.995 -0.393
Si Si 0.373 0.966 0.646 -0.393
Si Si 0.951 0.783 0.423 -0.393
Si Si 0.797 0.526 0.501 -0.393
Si Si 0.981 0.119 0.411 -0.393
Si Si 0.685 0.801 0.512 -0.393
Si Si 0.950 0.533 0.169 -0.393
Si Si 0.270 0.055 0.505 -0.393
Si Si 0.735 0.049 0.877 -0.393
Si Si 0.789 0.231 0.621 -0.393
Si Si 0.954 0.876 0.406 -0.393
Si Si 0.607 0.447 0.540 -0.393
Al Al 0.996 0.771 0.838 0.000
Al Al 0.805 0.901 0.500 0.000
Si Si 0.963 0.676 0.246 -0.393
Si Si 0.062 0.847 0.086 -0.393
Si Si 0.403 0.504 0.869 -0.393
Si Si 0.962 0.668 0.273 -0.393
Si Si 0.557 0.295 0.150 -0.393
Si Si 0.717 0.746 0.438 -0.393
Al Al 0.703 0.921 0.761 0.000
Si Si 0.711 0.289 0.850 -0.393
Si Si 0.148 0.337 0.097 -0.393
Si Si 0.614 0.890 0.200 -0.393
Si Si 0.226 0.115 0.882 -0.393
Si Si 0.616 0.616 0.438 -0.393
Si Si 0.718 0.039 0.233 -0.393
Si Si 0.439 0.697 0.885 -0.393
Si Si 0.214 0.308 0.026 -0.393
Si Si 0.713 0.209 0.725 -0.393
Si Si 0.786 0.594 0.134 -0.393
Si Si 0.281 0.577 0.180 -0.393
Si Si 0.079 0.347 0.085 -0.393
Si Si 0.857 0.063 0.242 -0.393
Si Si 0.384 0.911 0.388 -0.393
Si Si 0.164 0.353 0.039 -0.393
Si Si 0.700 0.309 0.652 -0.393
