_cell_length_a 18.211
_cell_length_b 20.683
_cell_length_c 7.600
_cell_angle_alpha 90.000
_cell_angle_beta 90.000
_cell_angle_gamma 90.000
_cell_volume 2862.647

_symmetry_cell_setting triclinic
_symmetry_space_group_name_Hall 'P 1'
_symmetry_space_group_name_H-M 'P 1'
_symmetry_Int_Tables_number 1
_symmetry_equiv_pos_as_xyz 'x,y,z'

loop_
_atom_site_label
_atom_site_type_symbol
_atom_site_fract_x
_atom_site_fract_y
_atom_site_fract_z
_atom_site_charge
Al Al 0.238 0.238 0.044 0.000
Si Si 0.040 0.984 0.247 -0.393
Si Si 0.685 0.197 0.642 -0.393
Si Si 0.192 0.269 0.311 -0.393
Si Si 0.796 0.844 0.208 -0.393
Si Si 0.031 0.235 0.158 -0.393
Si Si 0.614 0.199 0.886 -0.393
Si Si 0.700 0.299 0.669 -0.393
Si Si 0.799 0.697 0.553 -0.393
Si Si 0.499 0.907 0.508 -0.393
Si Si 0.385 0.970 0.492 -0.393
Si Si 0.818 0.668 0.637 -0.393
Si Si 0.554 0.488 0.096 -0.393
Si Si 0.170 0.475 0.701 -0.393
Si Si 0.450 0.411 0.499 -0.393
Si Si 0.640 0.283 0.925 -0.393
Si Si 0.198 0.371 0.423 -0.393
Si Si 0.132 0.513 0.976 -0.393
Si Si 0.472 0.460 0.007 -0.393
Si Si 0.882 0.592 0.484 -0.393
Si Si 0.001 0.372 0.422 -0.393
Al Al 0.212 0.006 0.355 0.000
Si Si 0.499 0.590 0.675 -0.393
Si Si 0.253 0.370 0.426 -0.393
Si Si 0.638 0.953 0.019 -0.393
Si Si 0.403 0.456 0.683 -0.393
Si Si 0.355 0.921 0.168 -0.393
Si Si 0.329 0.073 0.207 -0.393
Si Si 0.325 0.806 0.005 -0.393
Si Si 0.995 0.921 0.859 -0.393
Si Si 0.054 0.054 0.770 -0.393
Si Si 0.814 0.112 0.520 -0.393
Si Si 0.893 0.811 0.757 -0.393
Si Si 0.290 0.833 0.229 -0.393
Si Si 0.205 0.628 0.105 -0.393
Si Si 0.821 0.222 0.771 -0.393
Si Si 0.345 0.017 0.060 -0.393
Si Si 0.712 0.732 0.504 -0.393
Si Si 0.354 0.939 0.840 -0.393
Si Si 0.755 0.228 0.498 -0.393
Si Si 0.010 0.966 0.841 -0.393
Si Si 0.665 0.897 0.666 -0.393
Si Si 0.739 0.634 0.084 -0.393
Si Si 0.238 0.859 0.028 -0.393
Si Si 0.722 0.267 0.621 -0.393
Si Si 0.753 0.052 0.928 -0.393
Si Si 0.288 0.381 0.336 -0.393
Si Si 0.885 0.995 0.628 -0.393
