_cell_length_a 18.397
_cell_length_b 20.304
_cell_length_c 7.529
_cell_angle_alpha 90.000
_cell_angle_beta 90.000
_cell_angle_gamma 90.000
_cell_volume 2812.373

_symmetry_cell_setting triclinic
_symmetry_space_group_name_Hall 'P 1'
_symmetry_space_group_name_H-M 'P 1'
_symmetry_Int_Tables_number 1
_symmetry_equiv_pos_as_xyz 'x,y,z'

loop_
_atom_site_label
_atom_site_type_symbol
_atom_site_fract_x
_atom_site_fract_y
_atom_site_fract_z
_atom_site_charge
Si Si 0.812 0.482 0.257 -0.393
Si Si 0.172 0.816 0.869 -0.393
Si Si 0.666 0.916 0.189 -0.393
Si Si 0.394 0.678 0.118 -0.393
Si Si 0.679 0.556 0.067 -0.393
Si Si 0.788 0.356 0.653 -0.393
Si Si 0.535 0.049 0.216 -0.393
Si Si 0.538 0.441 0.221 -0.393
Si Si 0.198 0.468 0.803 -0.393
Si Si 0.855 0.005 0.944 -0.393
Si Si 0.747 0.521 0.090 -0.393
Si Si 0.259 0.576 0.330 -0.393
Si Si 0.224 0.382 0.159 -0.393
Si Si 0.365 0.321 0.723 -0.393
Si Si 0.971 0.799 0.160 -0.393
Si Si 0.614 0.014 0.828 -0.393
Si Si 0.192 0.007 0.872 -0.393
Si Si 0.761 0.119 0.610 -0.393
Si Si 0.292 0.864 0.818 -0.393
Si Si 0.920 0.494 0.527 -0.393
Si Si 0.267 0.230 0.515 -0.393
Si Si 0.562 0.946 0.121 -0.393
Si Si 0.886 0.783 0.774 -0.393
Al Al 0.497 0.060 0.258 0.000
Si Si 0.947 0.572 0.599 -0.393
Si Si 0.087 0.754 0.966 -0.393
Al Al 0.868 0.539 0.500 0.000
Si Si 0.268 0.365 0.886 -0.393
Si Si 0.770 0.567 0.942 -0.393
Si Si 0.313 0.583 0.573 -0.393
Si Si 0.881 0.467 0.835 -0.393
Si Si 0.009 0.048 0.059 -0.393
Si Si 0.111 0.402 0.090 -0.393
Si Si 0.312 0.354 0.863 -0.393
Si Si 0.742 0.022 0.121 -0.393
Si Si 0.173 0.670 0.242 -0.393
Si Si 0.966 0.202 0.244 -0.393
Si Si 0.693 0.780 0.302 -0.393
Si Si 0.559 0.494 0.220 -0.393
Si Si 0.029 0.720 0.452 -0.393
Si Si 0.691 0.322 0.611 -0.393
Si Si 0.839 0.266 0.341 -0.393
Si Si 0.966 0.047 0.538 -0.393
Si Si 0.085 0.273 0.622 -0.393
Si Si 0.601 0.284 0.533 -0.393
Si Si 0.281 0.985 0.684 -0.393
Si Si 0.270 0.107 0.217 -0.393
Si Si 0.159 0.128 0.675 -0.393
