_cell_length_a 18.455
_cell_length_b 20.434
_cell_length_c 7.636
_cell_angle_alpha 90.000
_cell_angle_beta 90.000
_cell_angle_gamma 90.000
_cell_volume 2879.785

_symmetry_cell_setting triclinic
_symmetry_space_group_name_Hall 'P 1'
_symmetry_space_group_name_H-M 'P 1'
_symmetry_Int_Tables_number 1
_symmetry_equiv_pos_as_xyz 'x,y,z'

loop_
_atom_site_label
_atom_site_type_symbol
_atom_site_fract_x
_atom_site_fract_y
_atom_site_fract_z
_atom_site_charge
Si Si 0.766 0.862 0.668 -0.393
Si Si 0.850 0.505 0.373 -0.393
Si Si 0.847 0.353 0.985 -0.393
Si Si 0.004 0.772 0.045 -0.393
Si Si 0.568 0.673 0.676 -0.393
Al Al 0.763 0.917 0.884 0.000
Si Si 0.718 0.515 0.038 -0.393
Si Si 0.818 0.612 0.386 -0.393
Si Si 0.166 0.848 0.197 -0.393
Si Si 0.085 0.769 0.209 -0.393
Si Si 0.349 0.608 0.628 -0.393
Si Si 0.156 0.087 0.338 -0.393
Si Si 0.068 0.791 0.707 -0.393
Si Si 0.794 0.674 0.163 -0.393
Si Si 0.523 0.187 0.755 -0.393
Si Si 0.085 0.810 0.209 -0.393
Si Si 0.512 0.968 0.421 -0.393
Si Si 0.874 0.338 0.253 -0.393
Al Al 0.120 0.625 0.927 0.000
Si Si 0.332 0.228 0.582 -0.393
Si Si 0.771 0.660 0.642 -0.393
Si Si 0.491 0.884 0.536 -0.393
Si Si 0.535 0.395 0.971 -0.393
Si Si 0.666 0.874 0.746 -0.393
Si Si 0.539 0.131 0.558 -0.393
Si Si 0.727 0.871 0.787 -0.393
Si Si 0.531 0.504 0.635 -0.393
Si Si 0.159 0.808 0.068 -0.393
Si Si 0.539 0.876 0.505 -0.393
Si Si 0.210 0.454 0.512 -0.393
Si Si 0.403 0.451 0.297 -0.393
Al Al 0.342 0.255 0.222 0.000
Al Al 0.047 0.634 0.310 0.000
Si Si 0.013 0.967 0.042 -0.393
Si Si 0.046 0.953 0.445 -0.393
Si Si 0.231 0.669 0.967 -0.393
Si Si 0.838 0.152 0.923 -0.393
Si Si 0.605 0.491 0.938 -0.393
Al Al 0.722 0.072 0.801 0.000
Si Si 0.408 0.282 0.360 -0.393
Si Si 0.089 0.494 0.359 -0.393
Si Si 0.132 0.375 0.738 -0.393
Si Si 0.623 0.216 0.451 -0.393
Si Si 0.215 0.633 0.876 -0.393
Si Si 0.817 0.522 0.447 -0.393
Si Si 0.303 0.171 0.619 -0.393
Si Si 0.913 0.443 0.006 -0.393
Si Si 0.632 0.638 0.736 -0.393
