_cell_length_a 18.389
_cell_length_b 20.682
_cell_length_c 7.561
_cell_angle_alpha 90.000
_cell_angle_beta 90.000
_cell_angle_gamma 90.000
_cell_volume 2875.725

_symmetry_cell_setting triclinic
_symmetry_space_group_name_Hall 'P 1'
_symmetry_space_group_name_H-M 'P 1'
_symmetry_Int_Tables_number 1
_symmetry_equiv_pos_as_xyz 'x,y,z'

loop_
_atom_site_label
_atom_site_type_symbol
_atom_site_fract_x
_atom_site_fract_y
_atom_site_fract_z
_atom_site_charge
Si Si 0.994 0.138 0.696 -0.393
Si Si 0.793 0.140 0.976 -0.393
Si Si 0.953 0.147 0.637 -0.393
Si Si 0.572 0.770 0.726 -0.393
Si Si 0.647 0.889 0.242 -0.393
Si Si 0.863 0.282 0.883 -0.393
Si Si 0.902 0.824 0.581 -0.393
Si Si 0.147 0.759 0.444 -0.393
Si Si 0.488 0.347 0.959 -0.393
Si Si 0.131 0.162 0.965 -0.393
Si Si 0.848 0.922 0.660 -0.393
Si Si 0.295 0.008 0.995 -0.393
Si Si 0.662 0.673 0.622 -0.393
Si Si 0.817 0.353 0.370 -0.393
Si Si 0.630 0.185 0.909 -0.393
Si Si 0.375 0.507 0.109 -0.393
Si Si 0.304 0.328 0.740 -0.393
Si Si 0.853 0.081 0.977 -0.393
Si Si 0.010 0.511 0.569 -0.393
Si Si 0.432 0.057 0.439 -0.393
Si Si 0.235 0.867 0.077 -0.393
Si Si 0.188 0.156 0.734 -0.393
Si Si 0.473 0.190 0.430 -0.393
Si Si 0.462 0.583 0.334 -0.393
Si Si 0.395 0.738 0.540 -0.393
Si Si 0.028 0.687 0.301 -0.393
Al Al 0.344 0.240 0.601 0.000
Si Si 0.183 0.746 0.321 -0.393
Si Si 0.623 0.345 0.312 -0.393
Si Si 0.265 0.755 0.821 -0.393
Al Al 0.642 0.192 0.697 0.000
Si Si 0.135 0.280 0.827 -0.393
Si Si 0.331 0.477 0.590 -0.393
Si Si 0.947 0.597 0.274 -0.393
Si Si 0.130 0.632 0.834 -0.393
Si Si 0.380 0.139 0.351 -0.393
Si Si 0.564 0.976 0.295 -0.393
Si Si 0.220 0.552 0.026 -0.393
Si Si 0.032 0.960 0.577 -0.393
Si Si 0.336 0.203 0.956 -0.393
Si Si 0.844 0.277 0.158 -0.393
Si Si 0.101 0.549 0.685 -0.393
Si Si 0.271 0.634 0.091 -0.393
Si Si 0.992 0.263 0.179 -0.393
Si Si 0.576 0.775 0.706 -0.393
Si Si 0.958 0.093 0.490 -0.393
Si Si 0.709 0.932 0.602 -0.393
Si Si 0.586 0.310 0.787 -0.393
