_cell_length_a 18.731
_cell_length_b 20.596
_cell_length_c 7.624
_cell_angle_alpha 90.000
_cell_angle_beta 90.000
_cell_angle_gamma 90.000
_cell_volume 2941.244

_symmetry_cell_setting triclinic
_symmetry_space_group_name_Hall 'P 1'
_symmetry_space_group_name_H-M 'P 1'
_symmetry_Int_Tables_number 1
_symmetry_equiv_pos_as_xyz 'x,y,z'

loop_
_atom_site_label
_atom_site_type_symbol
_atom_site_fract_x
_atom_site_fract_y
_atom_site_fract_z
_atom_site_charge
Si Si 0.970 0.228 0.222 -0.393
Si Si 0.326 0.705 0.044 -0.393
Si Si 0.320 0.712 0.472 -0.393
Si Si 0.801 0.545 0.520 -0.393
Si Si 0.361 0.739 0.924 -0.393
Al Al 0.913 0.292 0.583 0.000
Si Si 0.579 0.285 0.560 -0.393
Si Si 0.549 0.499 0.575 -0.393
Si Si 0.669 0.377 0.736 -0.393
Si Si 0.945 0.005 0.241 -0.393
Si Si 0.736 0.586 0.786 -0.393
Si Si 0.423 0.275 0.083 -0.393
Si Si 0.365 0.659 0.108 -0.393
Si Si 0.159 0.499 0.795 -0.393
Si Si 0.324 0.361 0.009 -0.393
Al Al 0.006 0.020 0.475 0.000
Si Si 0.728 0.593 0.037 -0.393
Si Si 0.200 0.867 0.413 -0.393
Si Si 0.258 0.198 0.014 -0.393
Si Si 0.626 0.999 0.317 -0.393
Si Si 0.700 0.188 0.690 -0.393
Si Si 0.818 0.812 0.334 -0.393
Si Si 0.834 0.632 0.850 -0.393
Si Si 0.189 0.468 0.396 -0.393
Si Si 0.686 0.256 0.950 -0.393
Si Si 0.521 0.439 0.694 -0.393
Si Si 0.832 0.214 0.234 -0.393
Si Si 0.642 0.275 0.265 -0.393
Si Si 0.206 0.162 0.171 -0.393
Si Si 0.347 0.749 0.961 -0.393
Si Si 0.759 0.902 0.463 -0.393
Si Si 0.221 0.742 0.838 -0.393
Al Al 0.964 0.594 0.053 0.000
Si Si 0.631 0.242 0.934 -0.393
Si Si 0.289 0.019 0.023 -0.393
Si Si 0.158 0.537 0.693 -0.393
Si Si 0.819 0.879 0.441 -0.393
Si Si 0.640 0.174 0.485 -0.393
Si Si 0.167 0.495 0.354 -0.393
Si Si 0.869 0.519 0.926 -0.393
Al Al 0.920 0.527 0.982 0.000
Al Al 0.685 0.028 0.412 0.000
Si Si 0.043 0.614 0.042 -0.393
Si Si 0.909 0.476 0.501 -0.393
Si Si 0.627 0.841 0.304 -0.393
Si Si 0.617 0.626 0.605 -0.393
Si Si 0.374 0.017 0.385 -0.393
Si Si 0.079 0.093 0.853 -0.393
