_cell_length_a 18.447
_cell_length_b 20.602
_cell_length_c 7.525
_cell_angle_alpha 90.000
_cell_angle_beta 90.000
_cell_angle_gamma 90.000
_cell_volume 2859.841

_symmetry_cell_setting triclinic
_symmetry_space_group_name_Hall 'P 1'
_symmetry_space_group_name_H-M 'P 1'
_symmetry_Int_Tables_number 1
_symmetry_equiv_pos_as_xyz 'x,y,z'

loop_
_atom_site_label
_atom_site_type_symbol
_atom_site_fract_x
_atom_site_fract_y
_atom_site_fract_z
_atom_site_charge
Si Si 0.987 0.225 0.202 -0.393
Si Si 0.965 0.402 0.129 -0.393
Si Si 0.811 0.079 0.578 -0.393
Si Si 0.111 0.221 0.292 -0.393
Si Si 0.149 0.140 0.475 -0.393
Si Si 0.100 0.615 0.041 -0.393
Si Si 0.582 0.199 0.521 -0.393
Si Si 0.717 0.749 0.397 -0.393
Si Si 0.220 0.794 0.070 -0.393
Si Si 0.768 0.458 0.859 -0.393
Si Si 0.920 0.810 0.425 -0.393
Si Si 0.397 0.354 0.578 -0.393
Si Si 0.850 0.267 0.666 -0.393
Si Si 0.586 0.927 0.012 -0.393
Si Si 0.142 0.460 0.573 -0.393
Si Si 0.037 0.807 0.333 -0.393
Al Al 0.486 0.463 0.989 0.000
Si Si 0.995 0.332 0.103 -0.393
Si Si 0.472 0.793 0.042 -0.393
Al Al 0.430 0.746 0.765 0.000
Si Si 0.821 0.457 0.721 -0.393
Si Si 0.428 0.245 0.262 -0.393
Si Si 0.831 0.015 0.176 -0.393
Si Si 0.042 0.861 0.112 -0.393
Si Si 0.969 0.896 0.086 -0.393
Si Si 0.758 0.141 0.017 -0.393
Si Si 0.280 0.427 0.905 -0.393
Si Si 0.426 0.020 0.933 -0.393
Si Si 0.766 0.932 0.219 -0.393
Si Si 0.643 0.180 0.854 -0.393
Si Si 0.614 0.083 0.598 -0.393
Al Al 0.419 0.283 0.144 0.000
Si Si 0.576 0.546 0.589 -0.393
Si Si 0.807 0.450 0.861 -0.393
Si Si 0.457 0.529 0.005 -0.393
Si Si 0.754 0.768 0.155 -0.393
Si Si 0.220 0.883 0.888 -0.393
Si Si 0.388 0.790 0.192 -0.393
Si Si 0.766 0.170 0.513 -0.393
Si Si 0.405 0.041 0.836 -0.393
Si Si 0.535 0.842 0.176 -0.393
Si Si 0.218 0.774 0.729 -0.393
Si Si 0.954 0.390 0.597 -0.393
Si Si 0.463 0.051 0.084 -0.393
Si Si 0.106 0.675 0.791 -0.393
Si Si 0.561 0.628 0.431 -0.393
Si Si 0.537 0.459 0.059 -0.393
Si Si 0.696 0.627 0.515 -0.393
