_cell_length_a 18.158
_cell_length_b 20.513
_cell_length_c 7.708
_cell_angle_alpha 90.000
_cell_angle_beta 90.000
_cell_angle_gamma 90.000
_cell_volume 2870.868

_symmetry_cell_setting triclinic
_symmetry_space_group_name_Hall 'P 1'
_symmetry_space_group_name_H-M 'P 1'
_symmetry_Int_Tables_number 1
_symmetry_equiv_pos_as_xyz 'x,y,z'

loop_
_atom_site_label
_atom_site_type_symbol
_atom_site_fract_x
_atom_site_fract_y
_atom_site_fract_z
_atom_site_charge
Si Si 0.539 0.755 0.220 -0.393
Si Si 0.439 0.209 0.149 -0.393
Si Si 0.647 0.519 0.214 -0.393
Si Si 0.044 0.105 0.438 -0.393
Si Si 0.675 0.980 0.032 -0.393
Si Si 0.935 0.641 0.388 -0.393
Si Si 0.614 0.010 0.830 -0.393
Si Si 0.953 0.313 0.455 -0.393
Si Si 0.665 0.339 0.269 -0.393
Si Si 0.368 0.408 0.695 -0.393
Si Si 0.591 0.547 0.094 -0.393
Si Si 0.418 0.783 0.524 -0.393
Si Si 0.139 0.022 0.036 -0.393
Si Si 0.158 0.506 0.850 -0.393
Si Si 0.927 0.137 0.828 -0.393
Si Si 0.904 0.142 0.347 -0.393
Si Si 0.691 0.926 0.314 -0.393
Si Si 0.055 0.128 0.277 -0.393
Si Si 0.394 0.771 0.190 -0.393
Si Si 0.165 0.167 0.281 -0.393
Si Si 0.894 0.675 0.607 -0.393
Si Si 0.950 0.750 0.423 -0.393
Si Si 0.361 0.737 0.099 -0.393
Si Si 0.983 0.465 0.074 -0.393
Si Si 0.970 0.951 0.975 -0.393
Si Si 0.331 0.780 0.997 -0.393
Si Si 0.374 0.253 0.909 -0.393
Si Si 0.342 0.585 0.269 -0.393
Si Si 0.564 0.569 0.381 -0.393
Al Al 0.857 0.978 0.236 0.000
Si Si 0.860 0.130 0.807 -0.393
Si Si 0.565 0.704 0.436 -0.393
Si Si 0.404 0.865 0.262 -0.393
Si Si 0.634 0.214 0.055 -0.393
Si Si 0.974 0.909 0.104 -0.393
Si Si 0.599 0.319 0.349 -0.393
Si Si 0.416 0.336 0.049 -0.393
Si Si 0.165 0.331 0.320 -0.393
Si Si 0.100 0.440 0.760 -0.393
Si Si 0.884 0.247 0.541 -0.393
Si Si 0.243 0.459 0.734 -0.393
Si Si 0.477 0.853 0.070 -0.393
Si Si 0.575 0.776 0.946 -0.393
Si Si 0.997 0.157 0.808 -0.393
Si Si 0.449 0.053 0.116 -0.393
Si Si 0.965 0.835 0.446 -0.393
Si Si 0.024 0.741 0.810 -0.393
Si Si 0.622 0.289 0.657 -0.393
