_cell_length_a 18.465
_cell_length_b 20.670
_cell_length_c 7.526
_cell_angle_alpha 90.000
_cell_angle_beta 90.000
_cell_angle_gamma 90.000
_cell_volume 2872.460

_symmetry_cell_setting triclinic
_symmetry_space_group_name_Hall 'P 1'
_symmetry_space_group_name_H-M 'P 1'
_symmetry_Int_Tables_number 1
_symmetry_equiv_pos_as_xyz 'x,y,z'

loop_
_atom_site_label
_atom_site_type_symbol
_atom_site_fract_x
_atom_site_fract_y
_atom_site_fract_z
_atom_site_charge
Si Si 0.614 0.900 0.758 -0.393
Si Si 0.288 0.863 0.297 -0.393
Si Si 0.340 0.816 0.177 -0.393
Si Si 0.443 0.943 0.438 -0.393
Si Si 0.424 0.749 0.562 -0.393
Si Si 0.453 0.838 0.724 -0.393
Si Si 0.267 0.605 0.325 -0.393
Si Si 0.500 0.456 0.052 -0.393
Si Si 0.158 0.082 0.756 -0.393
Si Si 0.159 0.060 0.161 -0.393
Si Si 0.410 0.539 0.513 -0.393
Si Si 0.776 0.716 0.111 -0.393
Si Si 0.600 0.867 0.187 -0.393
Si Si 0.586 0.855 0.032 -0.393
Si Si 0.014 0.129 0.414 -0.393
Si Si 0.953 0.031 0.899 -0.393
Si Si 0.133 0.060 0.077 -0.393
Si Si 0.158 0.816 0.631 -0.393
Si Si 0.555 0.703 0.164 -0.393
Si Si 0.329 0.229 0.786 -0.393
Si Si 0.788 0.463 0.226 -0.393
Al Al 0.478 0.389 0.830 0.000
Si Si 0.323 0.361 0.648 -0.393
Si Si 0.307 0.595 0.899 -0.393
Si Si 0.473 0.244 0.443 -0.393
Si Si 0.818 0.044 0.730 -0.393
Si Si 0.533 0.282 0.041 -0.393
Si Si 0.342 0.145 0.149 -0.393
Si Si 0.969 0.248 0.901 -0.393
Si Si 0.059 0.720 0.211 -0.393
Si Si 0.970 0.230 0.472 -0.393
Al Al 0.751 0.987 0.091 0.000
Si Si 0.150 0.175 0.190 -0.393
Si Si 0.974 0.098 0.081 -0.393
Si Si 0.916 0.581 0.236 -0.393
Si Si 0.015 0.752 0.019 -0.393
Si Si 0.412 0.365 0.443 -0.393
Si Si 0.028 0.093 0.299 -0.393
Si Si 0.503 0.674 0.093 -0.393
Si Si 0.890 0.520 0.241 -0.393
Si Si 0.139 0.844 0.810 -0.393
Si Si 0.526 0.023 0.667 -0.393
Si Si 0.762 0.020 0.550 -0.393
Si Si 0.910 0.504 0.105 -0.393
Si Si 0.578 0.197 0.917 -0.393
Si Si 0.030 0.471 0.553 -0.393
Si Si 0.135 0.622 0.506 -0.393
Si Si 0.826 0.629 0.204 -0.393
