_cell_length_a 18.268
_cell_length_b 20.641
_cell_length_c 7.510
_cell_angle_alpha 90.000
_cell_angle_beta 90.000
_cell_angle_gamma 90.000
_cell_volume 2831.661

_symmetry_cell_setting triclinic
_symmetry_space_group_name_Hall 'P 1'
_symmetry_space_group_name_H-M 'P 1'
_symmetry_Int_Tables_number 1
_symmetry_equiv_pos_as_xyz 'x,y,z'

loop_
_atom_site_label
_atom_site_type_symbol
_atom_site_fract_x
_atom_site_fract_y
_atom_site_fract_z
_atom_site_charge
Si Si 0.307 0.016 0.111 -0.393
Si Si 0.402 0.876 0.643 -0.393
Si Si 0.741 0.269 0.232 -0.393
Si Si 0.548 0.869 0.849 -0.393
Si Si 0.201 0.544 0.284 -0.393
Si Si 0.168 0.891 0.283 -0.393
Si Si 0.763 0.098 0.668 -0.393
Si Si 0.095 0.590 0.691 -0.393
Al Al 0.887 0.105 0.833 0.000
Si Si 0.669 0.825 0.831 -0.393
Si Si 0.558 0.693 0.503 -0.393
Si Si 0.408 0.627 0.999 -0.393
Si Si 0.102 0.760 0.257 -0.393
Si Si 0.827 0.757 0.473 -0.393
Si Si 0.093 0.101 0.009 -0.393
Al Al 0.047 0.557 0.279 0.000
Si Si 0.703 0.103 0.868 -0.393
Si Si 0.521 0.796 0.566 -0.393
Si Si 0.356 0.175 0.010 -0.393
Si Si 0.194 0.924 0.473 -0.393
Si Si 0.243 0.166 0.709 -0.393
Si Si 0.848 0.068 0.454 -0.393
Si Si 0.355 0.111 0.252 -0.393
Si Si 0.334 0.644 0.889 -0.393
Si Si 0.314 0.531 0.016 -0.393
Si Si 0.231 0.234 0.489 -0.393
Si Si 0.233 0.552 0.573 -0.393
Si Si 0.218 0.836 0.311 -0.393
Si Si 0.450 0.799 0.818 -0.393
Si Si 0.227 0.252 0.818 -0.393
Si Si 0.740 0.621 0.979 -0.393
Si Si 0.620 0.243 0.283 -0.393
Al Al 0.586 0.859 0.261 0.000
Si Si 0.679 0.058 0.514 -0.393
Al Al 0.107 0.036 0.485 0.000
Si Si 0.608 0.659 0.644 -0.393
Si Si 0.041 0.345 0.484 -0.393
Si Si 0.443 0.972 0.271 -0.393
Si Si 0.403 0.254 0.452 -0.393
Si Si 0.481 0.211 0.460 -0.393
Si Si 0.134 0.465 0.493 -0.393
Si Si 0.376 0.379 0.257 -0.393
Si Si 0.724 0.979 0.252 -0.393
Si Si 0.453 0.384 0.255 -0.393
Si Si 0.902 0.984 0.148 -0.393
Si Si 0.218 0.531 0.468 -0.393
Si Si 0.926 0.008 0.709 -0.393
Si Si 0.007 0.333 0.159 -0.393
