_cell_length_a 18.346
_cell_length_b 20.311
_cell_length_c 7.598
_cell_angle_alpha 90.000
_cell_angle_beta 90.000
_cell_angle_gamma 90.000
_cell_volume 2831.076

_symmetry_cell_setting triclinic
_symmetry_space_group_name_Hall 'P 1'
_symmetry_space_group_name_H-M 'P 1'
_symmetry_Int_Tables_number 1
_symmetry_equiv_pos_as_xyz 'x,y,z'

loop_
_atom_site_label
_atom_site_type_symbol
_atom_site_fract_x
_atom_site_fract_y
_atom_site_fract_z
_atom_site_charge
Si Si 0.523 0.394 0.600 -0.393
Si Si 0.996 0.179 0.335 -0.393
Si Si 0.274 0.177 0.707 -0.393
Si Si 0.906 0.680 0.467 -0.393
Si Si 0.971 0.971 0.880 -0.393
Si Si 0.518 0.611 0.904 -0.393
Si Si 0.050 0.422 0.377 -0.393
Si Si 0.416 0.321 0.236 -0.393
Si Si 0.040 0.416 0.123 -0.393
Al Al 0.546 0.891 0.935 0.000
Si Si 0.401 0.031 0.928 -0.393
Si Si 0.438 0.043 0.642 -0.393
Si Si 0.473 0.589 0.814 -0.393
Si Si 0.469 0.361 0.617 -0.393
Si Si 0.275 0.716 0.013 -0.393
Si Si 0.339 0.342 0.332 -0.393
Si Si 0.823 0.893 0.270 -0.393
Si Si 0.221 0.767 0.660 -0.393
Si Si 0.427 0.944 0.387 -0.393
Si Si 0.362 0.358 0.149 -0.393
Si Si 0.347 0.383 0.505 -0.393
Si Si 0.839 0.779 0.309 -0.393
Si Si 0.974 0.701 0.664 -0.393
Si Si 0.433 0.823 0.340 -0.393
Si Si 0.653 0.980 0.788 -0.393
Si Si 0.207 0.888 0.593 -0.393
Si Si 0.750 0.114 0.982 -0.393
Si Si 0.855 0.894 0.315 -0.393
Al Al 0.934 0.401 0.860 0.000
Si Si 0.682 0.550 0.848 -0.393
Si Si 0.628 0.486 0.934 -0.393
Si Si 0.942 0.577 0.091 -0.393
Si Si 0.145 0.469 0.969 -0.393
Si Si 0.939 0.862 0.221 -0.393
Si Si 0.724 0.777 0.062 -0.393
Si Si 0.359 0.100 0.625 -0.393
Al Al 0.335 0.289 0.136 0.000
Si Si 0.525 0.236 0.152 -0.393
Si Si 0.163 0.016 0.734 -0.393
Si Si 0.130 0.675 0.972 -0.393
Si Si 0.994 0.237 0.413 -0.393
Si Si 0.595 0.732 0.841 -0.393
Si Si 1.000 0.172 0.401 -0.393
Si Si 0.898 0.536 0.670 -0.393
Si Si 0.579 0.847 0.498 -0.393
Si Si 0.002 0.507 0.261 -0.393
Si Si 0.219 0.842 0.472 -0.393
Si Si 0.257 0.805 0.136 -0.393
