_cell_length_a 18.086
_cell_length_b 20.530
_cell_length_c 7.559
_cell_angle_alpha 90.000
_cell_angle_beta 90.000
_cell_angle_gamma 90.000
_cell_volume 2806.630

_symmetry_cell_setting triclinic
_symmetry_space_group_name_Hall 'P 1'
_symmetry_space_group_name_H-M 'P 1'
_symmetry_Int_Tables_number 1
_symmetry_equiv_pos_as_xyz 'x,y,z'

loop_
_atom_site_label
_atom_site_type_symbol
_atom_site_fract_x
_atom_site_fract_y
_atom_site_fract_z
_atom_site_charge
Si Si 0.311 0.076 0.785 -0.393
Si Si 0.031 0.009 0.560 -0.393
Si Si 0.937 0.911 0.563 -0.393
Si Si 0.213 0.712 0.018 -0.393
Si Si 0.242 0.605 0.120 -0.393
Si Si 0.288 0.748 0.841 -0.393
Si Si 0.298 0.588 0.744 -0.393
Si Si 0.480 0.677 0.465 -0.393
Si Si 0.878 0.775 0.615 -0.393
Si Si 0.977 0.247 0.052 -0.393
Si Si 0.650 0.474 0.063 -0.393
Si Si 0.403 0.882 0.547 -0.393
Si Si 0.440 0.260 0.712 -0.393
Si Si 0.699 0.156 0.838 -0.393
Si Si 0.194 0.756 0.752 -0.393
Si Si 0.373 0.167 0.659 -0.393
Si Si 0.027 0.877 0.252 -0.393
Si Si 0.719 0.494 0.721 -0.393
Si Si 0.169 0.289 0.935 -0.393
Si Si 0.534 0.793 0.653 -0.393
Si Si 0.723 0.313 0.863 -0.393
Al Al 0.419 0.967 0.884 0.000
Si Si 0.280 0.152 0.634 -0.393
Si Si 0.902 0.935 0.564 -0.393
Si Si 0.761 0.380 0.747 -0.393
Si Si 0.860 0.154 0.941 -0.393
Al Al 0.176 0.547 0.466 0.000
Si Si 0.123 0.009 0.238 -0.393
Si Si 0.946 0.516 0.419 -0.393
Si Si 0.506 0.731 0.588 -0.393
Si Si 0.219 0.418 0.442 -0.393
Si Si 0.859 0.912 0.165 -0.393
Si Si 0.866 0.987 0.643 -0.393
Si Si 0.536 0.652 0.873 -0.393
Si Si 0.167 0.969 0.416 -0.393
Si Si 0.269 0.260 0.789 -0.393
Si Si 0.795 0.085 0.695 -0.393
Si Si 0.443 0.283 0.727 -0.393
Si Si 0.203 0.638 0.005 -0.393
Si Si 0.068 0.509 0.275 -0.393
Si Si 0.375 0.994 0.789 -0.393
Si Si 0.220 0.463 0.950 -0.393
Si Si 0.788 0.644 0.266 -0.393
Si Si 0.859 0.495 0.828 -0.393
Si Si 0.945 0.144 0.252 -0.393
Si Si 0.707 0.507 0.145 -0.393
Si Si 0.233 0.818 0.463 -0.393
Si Si 0.534 0.625 0.143 -0.393
